packages/bdgd2opendss/bdgd2opendss-1.0.0.tar.gz/bdgd2opendss-1.0.0/tests/dss_models_output/sub__/1_BOES_1/SegmentosMT_202312598_1_BOES_1_------1-----.dss
New "Line.SMT_33854" phases=3 bus1="3CO217.1.2.3" bus2="712571.1.2.3" linecode="11_3" length=0.001070000 units=km
New "Line.SMT_34403" phases=1 bus1="149481.3" bus2="778271.3" linecode="1_1" length=0.085750000 units=km
New "Line.SMT_34402" phases=1 bus1="104761.3" bus2="381101.3" linecode="1_1" length=0.090380000 units=km
New "Line.SMT_34459" phases=3 bus1="14591.1.2.3" bus2="14601.1.2.3" linecode="10_3" length=0.084590000 units=km
New "Line.SMT_34458" phases=3 bus1="14581.1.2.3" bus2="14591.1.2.3" linecode="10_3" length=0.031950000 units=km
New "Line.SMT_34453" phases=3 bus1="3CF882.1.2.3" bus2="778731.1.2.3" linecode="10_3" length=0.043760000 units=km
New "Line.SMT_34452" phases=3 bus1="778731.1.2.3" bus2="343371.1.2.3" linecode="10_3" length=0.106960000 units=km
New "Line.SMT_34468" phases=3 bus1="778801.1.2.3" bus2="778811.1.2.3" linecode="10_3" length=0.087220000 units=km
New "Line.SMT_34467" phases=3 bus1="778791.1.2.3" bus2="778801.1.2.3" linecode="10_3" length=0.077260000 units=km
New "Line.SMT_34466" phases=3 bus1="778781.1.2.3" bus2="778791.1.2.3" linecode="10_3" length=0.105150000 units=km
New "Line.SMT_34465" phases=3 bus1="778771.1.2.3" bus2="778781.1.2.3" linecode="10_3" length=0.067000000 units=km
New "Line.SMT_34464" phases=3 bus1="14601.1.2.3" bus2="778771.1.2.3" linecode="10_3" length=0.103850000 units=km
New "Line.SMT_35553" phases=1 bus1="786021.3" bus2="786031.3" linecode="1_1" length=0.049780000 units=km
New "Line.SMT_35552" phases=1 bus1="786011.3" bus2="786021.3" linecode="1_1" length=0.042550000 units=km
New "Line.SMT_35551" phases=1 bus1="123781.3" bus2="786011.3" linecode="1_1" length=0.050110000 units=km
New "Line.SMT_35684" phases=3 bus1="267551.1.2.3" bus2="267561.1.2.3" linecode="3_3" length=0.040890000 units=km
New "Line.SMT_35683" phases=3 bus1="787371.1.2.3" bus2="267551.1.2.3" linecode="3_3" length=0.042230000 units=km
New "Line.SMT_35682" phases=3 bus1="787191.1.2.3" bus2="267541.1.2.3" linecode="3_3" length=0.052900000 units=km
New "Line.SMT_35681" phases=3 bus1="787201.1.2.3" bus2="267532.1.2.3" linecode="3_3" length=0.043770000 units=km
New "Line.SMT_35680" phases=3 bus1="206611.1.2.3" bus2="206621.1.2.3" linecode="28_3" length=0.039620000 units=km
New "Line.SMT_35679" phases=3 bus1="111312.1.2.3" bus2="206611.1.2.3" linecode="28_3" length=0.034370000 units=km
New "Line.SMT_35678" phases=3 bus1="92851.1.2.3" bus2="151011.1.2.3" linecode="10_3" length=0.061220000 units=km
New "Line.SMT_35677" phases=3 bus1="206621.1.2.3" bus2="111321.1.2.3" linecode="28_3" length=0.044410000 units=km
New "Line.SMT_35676" phases=3 bus1="104772.1.2.3" bus2="111312.1.2.3" linecode="3_3" length=0.020760000 units=km
New "Line.SMT_35675" phases=3 bus1="111312.1.2.3" bus2="111301.1.2.3" linecode="28_3" length=0.064560000 units=km
New "Line.SMT_35674" phases=3 bus1="111301.1.2.3" bus2="111291.1.2.3" linecode="28_3" length=0.043660000 units=km
New "Line.SMT_35672" phases=3 bus1="92782.1.2.3" bus2="104772.1.2.3" linecode="3_3" length=0.041470000 units=km
New "Line.SMT_35671" phases=3 bus1="676071.1.2.3" bus2="92871.1.2.3" linecode="10_3" length=0.065290000 units=km
New "Line.SMT_35670" phases=3 bus1="787181.1.2.3" bus2="92851.1.2.3" linecode="10_3" length=0.045190000 units=km
New "Line.SMT_35669" phases=3 bus1="787241.1.2.3" bus2="92821.1.2.3" linecode="3_3" length=0.036710000 units=km
New "Line.SMT_35668" phases=3 bus1="787271.1.2.3" bus2="92802.1.2.3" linecode="3_3" length=0.041190000 units=km
New "Line.SMT_35667" phases=3 bus1="787281.1.2.3" bus2="92782.1.2.3" linecode="3_3" length=0.063020000 units=km
New "Line.SMT_35702" phases=3 bus1="327161.1.2.3" bus2="787291.1.2.3" linecode="3_3" length=0.033830000 units=km
New "Line.SMT_35701" phases=3 bus1="92802.1.2.3" bus2="787281.1.2.3" linecode="3_3" length=0.050650000 units=km
New "Line.SMT_35700" phases=3 bus1="787261.1.2.3" bus2="787271.1.2.3" linecode="3_3" length=0.040380000 units=km
New "Line.SMT_35699" phases=3 bus1="787251.1.2.3" bus2="787261.1.2.3" linecode="3_3" length=0.034760000 units=km
New "Line.SMT_35698" phases=3 bus1="92821.1.2.3" bus2="787251.1.2.3" linecode="3_3" length=0.054390000 units=km
New "Line.SMT_35697" phases=3 bus1="787361.1.2.3" bus2="787241.1.2.3" linecode="3_3" length=0.059250000 units=km
New "Line.SMT_35696" phases=3 bus1="267561.1.2.3" bus2="787231.1.2.3" linecode="3_3" length=0.045170000 units=km
New "Line.SMT_35695" phases=3 bus1="92871.1.2.3" bus2="787221.1.2.3" linecode="10_3" length=0.044450000 units=km
New "Line.SMT_35694" phases=3 bus1="787221.1.2.3" bus2="787211.1.2.3" linecode="3_3" length=0.060400000 units=km
New "Line.SMT_35693" phases=3 bus1="787211.1.2.3" bus2="787201.1.2.3" linecode="3_3" length=0.044580000 units=km
New "Line.SMT_35691" phases=3 bus1="787221.1.2.3" bus2="787181.1.2.3" linecode="10_3" length=0.092240000 units=km
New "Line.SMT_35690" phases=3 bus1="267571.1.2.3" bus2="724231.1.2.3" linecode="10_3" length=0.061610000 units=km
New "Line.SMT_35689" phases=3 bus1="92881.1.2.3" bus2="676081.1.2.3" linecode="10_3" length=0.019920000 units=km
New "Line.SMT_35688" phases=3 bus1="676081.1.2.3" bus2="676071.1.2.3" linecode="10_3" length=0.030790000 units=km
New "Line.SMT_35687" phases=3 bus1="787261.1.2.3" bus2="327161.1.2.3" linecode="3_3" length=0.029630000 units=km
New "Line.SMT_35686" phases=1 bus1="724231.3" bus2="267601.3" linecode="1_1" length=0.117390000 units=km
New "Line.SMT_35685" phases=3 bus1="787231.1.2.3" bus2="267571.1.2.3" linecode="3_3" length=0.043040000 units=km
New "Line.SMT_35704" phases=3 bus1="267541.1.2.3" bus2="787371.1.2.3" linecode="3_3" length=0.042110000 units=km
New "Line.SMT_35703" phases=3 bus1="267571.1.2.3" bus2="787361.1.2.3" linecode="3_3" length=0.048050000 units=km
New "Line.SMT_36010" phases=3 bus1="789301.1.2.3" bus2="789311.1.2.3" linecode="10_3" length=0.097180000 units=km
New "Line.SMT_36009" phases=3 bus1="3CF355.1.2.3" bus2="789301.1.2.3" linecode="10_3" length=0.040190000 units=km
New "Line.SMT_36008" phases=3 bus1="789311.1.2.3" bus2="747231.1.2.3" linecode="10_3" length=0.217280000 units=km
New "Line.SMT_36007" phases=3 bus1="329601.1.2.3" bus2="641971.1.2.3" linecode="10_3" length=0.099700000 units=km
New "Line.SMT_36006" phases=3 bus1="641971.1.2.3" bus2="621491.1.2.3" linecode="10_3" length=0.108980000 units=km
New "Line.SMT_36005" phases=3 bus1="104011.1.2.3" bus2="343461.1.2.3" linecode="10_3" length=0.003000000 units=km
New "Line.SMT_36004" phases=3 bus1="621491.1.2.3" bus2="329611.1.2.3" linecode="10_3" length=0.079910000 units=km
New "Line.SMT_36003" phases=3 bus1="747231.1.2.3" bus2="329601.1.2.3" linecode="10_3" length=0.081050000 units=km
New "Line.SMT_36002" phases=3 bus1="329611.1.2.3" bus2="111911.1.2.3" linecode="10_3" length=0.042800000 units=km
New "Line.SMT_36205" phases=3 bus1="84821.1.2.3" bus2="790511.1.2.3" linecode="13_3" length=0.058360000 units=km
New "Line.SMT_36204" phases=3 bus1="3CF1800.1.2.3" bus2="84811.1.2.3" linecode="13_3" length=0.009180000 units=km
New "Line.SMT_36322" phases=3 bus1="791341.1.2.3" bus2="791361.1.2.3" linecode="10_3" length=0.039210000 units=km
New "Line.SMT_36321" phases=3 bus1="762271.1.2.3" bus2="791351.1.2.3" linecode="11_3" length=0.003540000 units=km
New "Line.SMT_36320" phases=3 bus1="791351.1.2.3" bus2="791341.1.2.3" linecode="10_3" length=0.020420000 units=km
New "Line.SMT_36319" phases=3 bus1="791351.1.2.3" bus2="601901.1.2.3" linecode="11_3" length=0.019500000 units=km
New "Line.SMT_36318" phases=3 bus1="791351.1.2.3" bus2="451381.1.2.3" linecode="10_3" length=0.004550000 units=km
New "Line.SMT_36351" phases=3 bus1="791511.1.2.3" bus2="791521.1.2.3" linecode="10_3" length=0.068010000 units=km
New "Line.SMT_36350" phases=3 bus1="768361.1.2.3" bus2="791511.1.2.3" linecode="10_3" length=0.069340000 units=km
New "Line.SMT_36349" phases=3 bus1="768351.1.2.3" bus2="768361.1.2.3" linecode="10_3" length=0.025780000 units=km
New "Line.SMT_36348" phases=3 bus1="768341.1.2.3" bus2="768351.1.2.3" linecode="10_3" length=0.037130000 units=km
New "Line.SMT_36347" phases=3 bus1="768331.1.2.3" bus2="768341.1.2.3" linecode="10_3" length=0.046250000 units=km
New "Line.SMT_36346" phases=3 bus1="768321.1.2.3" bus2="768331.1.2.3" linecode="10_3" length=0.050420000 units=km
New "Line.SMT_36345" phases=3 bus1="768311.1.2.3" bus2="768321.1.2.3" linecode="10_3" length=0.037690000 units=km
New "Line.SMT_36344" phases=3 bus1="6121.1.2.3" bus2="768311.1.2.3" linecode="10_3" length=0.034360000 units=km
New "Line.SMT_36488" phases=3 bus1="792041.1.2.3" bus2="792051.1.2.3" linecode="10_3" length=0.096440000 units=km
New "Line.SMT_36487" phases=3 bus1="131311.1.2.3" bus2="792041.1.2.3" linecode="10_3" length=0.111020000 units=km
New "Line.SMT_36513" phases=3 bus1="683841.1.2.3" bus2="792481.1.2.3" linecode="3_3" length=0.015450000 units=km
New "Line.SMT_36512" phases=3 bus1="792491.1.2.3" bus2="792471.1.2.3" linecode="3_3" length=0.004400000 units=km
New "Line.SMT_36511" phases=3 bus1="792491.1.2.3" bus2="792461.1.2.3" linecode="3_3" length=0.045170000 units=km
New "Line.SMT_36510" phases=3 bus1="792461.1.2.3" bus2="792331.1.2.3" linecode="3_3" length=0.026860000 units=km
New "Line.SMT_36509" phases=3 bus1="792331.1.2.3" bus2="792321.1.2.3" linecode="3_3" length=0.031080000 units=km
New "Line.SMT_36508" phases=3 bus1="792321.1.2.3" bus2="792311.1.2.3" linecode="3_3" length=0.045120000 units=km
New "Line.SMT_36507" phases=3 bus1="792311.1.2.3" bus2="792301.1.2.3" linecode="3_3" length=0.044210000 units=km
New "Line.SMT_36506" phases=3 bus1="792501.1.2.3" bus2="792281.1.2.3" linecode="3_3" length=0.026110000 units=km
New "Line.SMT_36505" phases=3 bus1="792501.1.2.3" bus2="792271.1.2.3" linecode="3_3" length=0.033760000 units=km
New "Line.SMT_36504" phases=3 bus1="792501.1.2.3" bus2="792261.1.2.3" linecode="3_3" length=0.011450000 units=km
New "Line.SMT_36503" phases=3 bus1="792491.1.2.3" bus2="792191.1.2.3" linecode="3_3" length=0.016570000 units=km
New "Line.SMT_36502" phases=3 bus1="683811.1.2.3" bus2="792181.1.2.3" linecode="3_3" length=0.027210000 units=km
New "Line.SMT_36501" phases=3 bus1="792481.1.2.3" bus2="683851.1.2.3" linecode="3_3" length=0.014950000 units=km
New "Line.SMT_36500" phases=3 bus1="683881.1.2.3" bus2="683841.1.2.3" linecode="3_3" length=0.036810000 units=km
New "Line.SMT_36499" phases=3 bus1="792481.1.2.3" bus2="683831.1.2.3" linecode="3_3" length=0.017850000 units=km
New "Line.SMT_36498" phases=3 bus1="792481.1.2.3" bus2="683821.1.2.3" linecode="3_3" length=0.037090000 units=km
New "Line.SMT_36497" phases=3 bus1="683821.1.2.3" bus2="683811.1.2.3" linecode="3_3" length=0.037760000 units=km
New "Line.SMT_36515" phases=3 bus1="792301.1.2.3" bus2="792501.1.2.3" linecode="3_3" length=0.021090000 units=km
New "Line.SMT_36514" phases=3 bus1="792181.1.2.3" bus2="792491.1.2.3" linecode="3_3" length=0.025790000 units=km
New "Line.SMT_36551" phases=3 bus1="27561.1.2.3" bus2="792801.1.2.3" linecode="10_3" length=0.002020000 units=km
New "Line.SMT_36550" phases=3 bus1="792781.1.2.3" bus2="792791.1.2.3" linecode="10_3" length=0.058550000 units=km
New "Line.SMT_36549" phases=3 bus1="792771.1.2.3" bus2="792781.1.2.3" linecode="10_3" length=0.066220000 units=km
New "Line.SMT_36548" phases=3 bus1="21CF1793.1.2.3" bus2="792771.1.2.3" linecode="10_3" length=0.034930000 units=km
New "Line.SMT_37237" phases=3 bus1="148881.1.2.3" bus2="796571.1.2.3" linecode="28_3" length=0.059060000 units=km
New "Line.SMT_37236" phases=3 bus1="148871.1.2.3" bus2="796561.1.2.3" linecode="28_3" length=0.057670000 units=km
New "Line.SMT_37235" phases=3 bus1="341981.1.2.3" bus2="796551.1.2.3" linecode="28_3" length=0.058070000 units=km
New "Line.SMT_37234" phases=3 bus1="796561.1.2.3" bus2="341981.1.2.3" linecode="28_3" length=0.061370000 units=km
New "Line.SMT_37233" phases=3 bus1="796571.1.2.3" bus2="148871.1.2.3" linecode="28_3" length=0.062950000 units=km
New "Line.SMT_37232" phases=3 bus1="796551.1.2.3" bus2="148861.1.2.3" linecode="28_3" length=0.060940000 units=km
New "Line.SMT_37259" phases=3 bus1="796751.1.2.3" bus2="84831.1.2.3" linecode="28_3" length=0.055070000 units=km
New "Line.SMT_37258" phases=3 bus1="3CS1881.1.2.3" bus2="796751.1.2.3" linecode="28_3" length=0.001650000 units=km
New "Line.SMT_37257" phases=3 bus1="84831.1.2.3" bus2="84821.1.2.3" linecode="28_3" length=0.139810000 units=km
New "Line.SMT_37534" phases=3 bus1="646171.1.2.3" bus2="798481.1.2.3" linecode="3_3" length=0.061000000 units=km
New "Line.SMT_37533" phases=3 bus1="798481.1.2.3" bus2="646181.1.2.3" linecode="3_3" length=0.061260000 units=km
New "Line.SMT_37525" phases=1 bus1="798432.3" bus2="149501.3" linecode="1_1" length=0.096560000 units=km
New "Line.SMT_37748" phases=3 bus1="267532.1.2.3" bus2="799681.1.2.3" linecode="3_3" length=0.025180000 units=km
New "Line.SMT_37747" phases=3 bus1="799681.1.2.3" bus2="787191.1.2.3" linecode="3_3" length=0.031550000 units=km
New "Line.SMT_38341" phases=3 bus1="803361.1.2.3" bus2="109541.1.2.3" linecode="38_3" length=0.030460000 units=km
New "Line.SMT_38326" phases=1 bus1="3CF1528.2" bus2="220001.2" linecode="1_1" length=0.240020000 units=km
New "Line.SMT_38361" phases=3 bus1="803461.1.2.3" bus2="803471.1.2.3" linecode="38_3" length=0.046130000 units=km
New "Line.SMT_38360" phases=3 bus1="803451.1.2.3" bus2="803461.1.2.3" linecode="38_3" length=0.062970000 units=km
New "Line.SMT_38359" phases=3 bus1="803441.1.2.3" bus2="803451.1.2.3" linecode="38_3" length=0.052850000 units=km
New "Line.SMT_38358" phases=3 bus1="803431.1.2.3" bus2="803441.1.2.3" linecode="38_3" length=0.041730000 units=km
New "Line.SMT_38357" phases=3 bus1="803421.1.2.3" bus2="803431.1.2.3" linecode="38_3" length=0.048910000 units=km
New "Line.SMT_38356" phases=3 bus1="803411.1.2.3" bus2="803421.1.2.3" linecode="38_3" length=0.033290000 units=km
New "Line.SMT_38355" phases=3 bus1="3CS490.1.2.3" bus2="803411.1.2.3" linecode="38_3" length=0.033580000 units=km
New "Line.SMT_38352" phases=3 bus1="803591.1.2.3" bus2="803381.1.2.3" linecode="38_3" length=0.033300000 units=km
New "Line.SMT_38351" phases=3 bus1="803381.1.2.3" bus2="803371.1.2.3" linecode="38_3" length=0.044460000 units=km
New "Line.SMT_38350" phases=3 bus1="803371.1.2.3" bus2="803361.1.2.3" linecode="38_3" length=0.043370000 units=km
New "Line.SMT_38347" phases=3 bus1="83903.1.2.3" bus2="708511.1.2.3" linecode="38_3" length=0.049000000 units=km
New "Line.SMT_38346" phases=3 bus1="103962.1.2.3" bus2="699991.1.2.3" linecode="38_3" length=0.031940000 units=km
New "Line.SMT_38345" phases=3 bus1="699991.1.2.3" bus2="699981.1.2.3" linecode="38_3" length=0.035540000 units=km
New "Line.SMT_38344" phases=3 bus1="83903.1.2.3" bus2="673371.1.2.3" linecode="3_3" length=0.038450000 units=km
New "Line.SMT_38343" phases=3 bus1="404073.1.2.3" bus2="404151.1.2.3" linecode="13_3" length=0.052170000 units=km
New "Line.SMT_38342" phases=3 bus1="3CF1381.1.2.3" bus2="404073.1.2.3" linecode="13_3" length=0.052810000 units=km
New "Line.SMT_38377" phases=3 bus1="803401.1.2.3" bus2="803661.1.2.3" linecode="38_3" length=0.001540000 units=km
New "Line.SMT_38376" phases=3 bus1="803541.1.2.3" bus2="803621.1.2.3" linecode="13_3" length=0.001730000 units=km
New "Line.SMT_38375" phases=3 bus1="3CF1328.1.2.3" bus2="803611.1.2.3" linecode="10_3" length=0.000730000 units=km
New "Line.SMT_38374" phases=3 bus1="803421.1.2.3" bus2="803601.1.2.3" linecode="10_3" length=0.000620000 units=km
New "Line.SMT_38373" phases=3 bus1="803581.1.2.3" bus2="803591.1.2.3" linecode="38_3" length=0.044940000 units=km
New "Line.SMT_38372" phases=3 bus1="803571.1.2.3" bus2="803581.1.2.3" linecode="38_3" length=0.060230000 units=km
New "Line.SMT_38371" phases=3 bus1="83852.1.2.3" bus2="803571.1.2.3" linecode="38_3" length=0.061280000 units=km
New "Line.SMT_38370" phases=3 bus1="803551.1.2.3" bus2="803561.1.2.3" linecode="38_3" length=0.045510000 units=km
New "Line.SMT_38369" phases=3 bus1="803541.1.2.3" bus2="803551.1.2.3" linecode="38_3" length=0.036180000 units=km
New "Line.SMT_38368" phases=3 bus1="803531.1.2.3" bus2="803541.1.2.3" linecode="38_3" length=0.044240000 units=km
New "Line.SMT_38367" phases=3 bus1="803521.1.2.3" bus2="803531.1.2.3" linecode="38_3" length=0.049320000 units=km
New "Line.SMT_38366" phases=3 bus1="803511.1.2.3" bus2="803521.1.2.3" linecode="38_3" length=0.056670000 units=km
New "Line.SMT_38365" phases=3 bus1="803501.1.2.3" bus2="803511.1.2.3" linecode="38_3" length=0.047910000 units=km
New "Line.SMT_38363" phases=3 bus1="708511.1.2.3" bus2="803491.1.2.3" linecode="38_3" length=0.032320000 units=km
New "Line.SMT_38362" phases=3 bus1="803471.1.2.3" bus2="803481.1.2.3" linecode="38_3" length=0.054640000 units=km
New "Line.SMT_38710" phases=3 bus1="125351.1.2.3" bus2="125371.1.2.3" linecode="10_3" length=0.151840000 units=km
New "Line.SMT_38792" phases=1 bus1="806521.2" bus2="806531.2" linecode="1_1" length=0.055930000 units=km
New "Line.SMT_38791" phases=1 bus1="23781.2" bus2="806521.2" linecode="1_1" length=0.064970000 units=km
New "Line.SMT_38790" phases=1 bus1="84181.2" bus2="23781.2" linecode="1_1" length=0.078920000 units=km
New "Line.SMT_39102" phases=3 bus1="808811.1.2.3" bus2="808821.1.2.3" linecode="3_3" length=0.019720000 units=km
New "Line.SMT_39101" phases=3 bus1="808801.1.2.3" bus2="808811.1.2.3" linecode="3_3" length=0.027300000 units=km
New "Line.SMT_39100" phases=3 bus1="808791.1.2.3" bus2="808801.1.2.3" linecode="3_3" length=0.039340000 units=km
New "Line.SMT_39099" phases=3 bus1="808641.1.2.3" bus2="808791.1.2.3" linecode="3_3" length=0.039340000 units=km
New "Line.SMT_39098" phases=3 bus1="808631.1.2.3" bus2="808641.1.2.3" linecode="3_3" length=0.039340000 units=km
New "Line.SMT_39097" phases=3 bus1="808621.1.2.3" bus2="808631.1.2.3" linecode="3_3" length=0.039340000 units=km
New "Line.SMT_39096" phases=3 bus1="808611.1.2.3" bus2="808621.1.2.3" linecode="3_3" length=0.037340000 units=km
New "Line.SMT_39095" phases=3 bus1="808591.1.2.3" bus2="808611.1.2.3" linecode="3_3" length=0.033930000 units=km
New "Line.SMT_39093" phases=3 bus1="808581.1.2.3" bus2="808591.1.2.3" linecode="3_3" length=0.029940000 units=km
New "Line.SMT_39092" phases=3 bus1="808571.1.2.3" bus2="808581.1.2.3" linecode="3_3" length=0.031070000 units=km
New "Line.SMT_39091" phases=3 bus1="808601.1.2.3" bus2="808571.1.2.3" linecode="3_3" length=0.014010000 units=km
New "Line.SMT_39090" phases=3 bus1="808601.1.2.3" bus2="808561.1.2.3" linecode="3_3" length=0.011580000 units=km
New "Line.SMT_39089" phases=3 bus1="808601.1.2.3" bus2="761351.1.2.3" linecode="3_3" length=0.007450000 units=km
New "Line.SMT_39116" phases=3 bus1="808971.1.2.3" bus2="808981.1.2.3" linecode="3_3" length=0.031730000 units=km
New "Line.SMT_39115" phases=3 bus1="808961.1.2.3" bus2="808971.1.2.3" linecode="3_3" length=0.038800000 units=km
New "Line.SMT_39114" phases=3 bus1="808951.1.2.3" bus2="808961.1.2.3" linecode="3_3" length=0.039590000 units=km
New "Line.SMT_39113" phases=3 bus1="808861.1.2.3" bus2="808951.1.2.3" linecode="3_3" length=0.036440000 units=km
New "Line.SMT_39112" phases=3 bus1="808891.1.2.3" bus2="808901.1.2.3" linecode="3_3" length=0.027810000 units=km
New "Line.SMT_39111" phases=3 bus1="808881.1.2.3" bus2="808891.1.2.3" linecode="3_3" length=0.028870000 units=km
New "Line.SMT_39110" phases=3 bus1="808871.1.2.3" bus2="808881.1.2.3" linecode="3_3" length=0.038500000 units=km
New "Line.SMT_39109" phases=3 bus1="808861.1.2.3" bus2="808871.1.2.3" linecode="3_3" length=0.039640000 units=km
New "Line.SMT_39108" phases=3 bus1="808831.1.2.3" bus2="808861.1.2.3" linecode="3_3" length=0.022000000 units=km
New "Line.SMT_39107" phases=3 bus1="808821.1.2.3" bus2="808831.1.2.3" linecode="3_3" length=0.030070000 units=km
New "Line.SMT_39106" phases=3 bus1="808671.1.2.3" bus2="808681.1.2.3" linecode="3_3" length=0.029780000 units=km
New "Line.SMT_39105" phases=3 bus1="808661.1.2.3" bus2="808671.1.2.3" linecode="3_3" length=0.034200000 units=km
New "Line.SMT_39104" phases=3 bus1="808651.1.2.3" bus2="808661.1.2.3" linecode="3_3" length=0.025320000 units=km
New "Line.SMT_39103" phases=3 bus1="808641.1.2.3" bus2="808651.1.2.3" linecode="3_3" length=0.023950000 units=km
New "Line.SMT_39206" phases=1 bus1="741351.1" bus2="809971.1" linecode="1_1" length=0.041990000 units=km
New "Line.SMT_39272" phases=3 bus1="3CF1805.1.2.3" bus2="810691.1.2.3" linecode="3_3" length=0.026460000 units=km
New "Line.SMT_39273" phases=3 bus1="682551.1.2.3" bus2="810701.1.2.3" linecode="3_3" length=0.002560000 units=km
New "Line.SMT_39546" phases=3 bus1="85381.1.2.3" bus2="822441.1.2.3" linecode="10_3" length=0.004190000 units=km
New "Line.SMT_39559" phases=3 bus1="813201.1.2.3" bus2="813251.1.2.3" linecode="3_3" length=0.031720000 units=km
New "Line.SMT_39558" phases=3 bus1="813251.1.2.3" bus2="813241.1.2.3" linecode="3_3" length=0.015700000 units=km
New "Line.SMT_39557" phases=3 bus1="813241.1.2.3" bus2="813231.1.2.3" linecode="3_3" length=0.028170000 units=km
New "Line.SMT_39556" phases=3 bus1="813251.1.2.3" bus2="813221.1.2.3" linecode="3_3" length=0.019440000 units=km
New "Line.SMT_39555" phases=3 bus1="813251.1.2.3" bus2="813211.1.2.3" linecode="3_3" length=0.011480000 units=km
New "Line.SMT_39554" phases=3 bus1="813191.1.2.3" bus2="813201.1.2.3" linecode="3_3" length=0.040210000 units=km
New "Line.SMT_39553" phases=3 bus1="813181.1.2.3" bus2="813191.1.2.3" linecode="3_3" length=0.030160000 units=km
New "Line.SMT_39552" phases=3 bus1="792291.1.2.3" bus2="813181.1.2.3" linecode="3_3" length=0.027180000 units=km
New "Line.SMT_39551" phases=3 bus1="85391.1.2.3" bus2="813111.1.2.3" linecode="3_3" length=0.001950000 units=km
New "Line.SMT_39550" phases=3 bus1="813041.1.2.3" bus2="813051.1.2.3" linecode="3_3" length=0.041200000 units=km
New "Line.SMT_39549" phases=3 bus1="813031.1.2.3" bus2="813041.1.2.3" linecode="3_3" length=0.029170000 units=km
New "Line.SMT_39548" phases=3 bus1="3CS1909.1.2.3" bus2="813031.1.2.3" linecode="3_3" length=0.026130000 units=km
New "Line.SMT_39547" phases=3 bus1="792281.1.2.3" bus2="792291.1.2.3" linecode="3_3" length=0.040120000 units=km
New "Line.SMT_39634" phases=3 bus1="81791.1.2.3" bus2="347051.1.2.3" linecode="10_3" length=0.077800000 units=km
New "Line.SMT_39633" phases=3 bus1="143801.1.2.3" bus2="81791.1.2.3" linecode="10_3" length=0.064760000 units=km
New "Line.SMT_39672" phases=3 bus1="3RL1910.1.2.3" bus2="814221.1.2.3" linecode="38_3" length=0.002030000 units=km
New "Line.SMT_39671" phases=3 bus1="803491.1.2.3" bus2="814211.1.2.3" linecode="38_3" length=0.003380000 units=km
New "Line.SMT_39670" phases=3 bus1="814221.1.2.3" bus2="803501.1.2.3" linecode="38_3" length=0.040970000 units=km
...
